
data_
_chemical_name_mineral ?Er2TiZrO7?
_cell_length_a 9.65506(14)
_cell_length_b 9.65506(14)
_cell_length_c 8.95814(17)
_cell_angle_alpha 90
_cell_angle_beta 90
_cell_angle_gamma 120
_cell_volume 723.20(2)
_symmetry_space_group_name_H-M R-3
loop_
	_symmetry_equiv_pos_as_xyz
	 'x, y, z '
	 '-x+y, -x, z '
	 '-y, x-y, z '
	 'y, -x+y, -z '
	 'x-y, x, -z '
	 '-x, -y, -z '
	 'x-1/3, y+1/3, z+1/3 '
	 '-x+y-1/3, -x+1/3, z+1/3 '
	 '-y-1/3, x-y+1/3, z+1/3 '
	 'y-1/3, -x+y+1/3, -z+1/3 '
	 'x-y-1/3, x+1/3, -z+1/3 '
	 '-x-1/3, -y+1/3, -z+1/3 '
	 'x+1/3, y-1/3, z-1/3 '
	 '-x+y+1/3, -x-1/3, z-1/3 '
	 '-y+1/3, x-y-1/3, z-1/3 '
	 'y+1/3, -x+y-1/3, -z-1/3 '
	 'x-y+1/3, x-1/3, -z-1/3 '
	 '-x+1/3, -y-1/3, -z-1/3 '
loop_
_atom_site_label
_atom_site_type_symbol
_atom_site_symmetry_multiplicity
_atom_site_fract_x
_atom_site_fract_y
_atom_site_fract_z
_atom_site_occupancy
_atom_site_B_iso_or_equiv
Er3a Er   3 0 0 0 0.1(2) 1.35(3)
Ti3a Ti   3 0 0 0 0.45(7) 1.35(3)
Zr3a Zr   3 0 0 0 0.45(7) 1.35(3)
Er18f Er  18 0.25449(5) 0.21060(6) 0.34903(6) 0.56(4) 1.182(12)
Ti18f Ti  18 0.25449(5) 0.21060(6) 0.34903(6) 0.22(3) 1.182(12)
Zr18f Zr  18 0.25449(5) 0.21060(6) 0.34903(6) 0.22(3) 1.182(12)
O18f1 O  18 0.03323(12) 0.21746(11) 0.39674(11) 0.989(3) 1.54(2)
O18f2 O  18 0.20950(13) 0.17681(14) 0.11207(13) 1.000(3) 1.83(3)
O6c O   6 0 0 0.284(2) 0.159(11) 8.4(7)